%mem=512MB
%nprocshared=2
%chk=TC.chk
# opt b3lyp/6-311++g geom=connectivity

opt tc

0 1
 O(PDBName=O1)                       5.61000000    1.11500000    0.19300000
 O(PDBName=O2)                       5.19600000   -1.74200000    0.23300000
 O(PDBName=O3)                       5.94900000    2.10100000   -1.78900000
 O(PDBName=O4)                       8.96400000   -0.22800000   -0.14700000
 O(PDBName=O5)                       4.13100000   -1.44100000    2.18500000
 C(PDBName=C1)                       4.07700000    2.85700000   -0.38300000
 C(PDBName=C2)                       2.92400000   -2.45800000    0.29500000
 C(PDBName=C3)                       5.27000000    2.03500000   -0.76400000
 C(PDBName=C4)                       6.62500000    0.15100000   -0.13100000
 C(PDBName=C5)                       4.07800000   -1.83300000    1.01900000
 C(PDBName=C6)                       6.34600000   -1.06800000    0.75000000
 C(PDBName=C7)                       7.99300000    0.75600000    0.19500000
 C(PDBName=C8)                      10.29300000    0.28900000   -0.07600000
 H(PDBName=H1)                       3.95700000    3.67000000   -1.14700000
 H(PDBName=H2)                       4.26700000    3.33100000    0.61600000
 H(PDBName=H3)                       2.87400000   -3.53500000    0.60700000
 H(PDBName=H4)                       3.10700000   -2.42800000   -0.81100000
 H(PDBName=H5)                       6.56800000   -0.12100000   -1.22000000
 H(PDBName=H6)                       6.20700000   -0.76800000    1.82000000
 H(PDBName=H7)                       7.19700000   -1.79400000    0.64200000
 H(PDBName=H8)                       8.07300000    1.00100000    1.28700000
 H(PDBName=H9)                       8.14200000    1.68700000   -0.41400000
 H(PDBName=H10)                     10.41100000    1.14600000   -0.78900000
 H(PDBName=H11)                     10.51300000    0.63900000    0.96700000
 H(PDBName=H12)                      3.18300000    2.23500000   -0.34500000
 H(PDBName=H13)                      1.99500000   -1.94500000    0.54300000
 H(PDBName=H14)                     10.99700000   -0.49800000   -0.34400000

 1 8 1.0 9 1.0
 2 10 1.0 11 1.0
 3 8 2.0
 4 12 1.0 13 1.0
 5 10 2.0
 6 14 1.0 15 1.0 25 1.0 8 1.0
 7 10 1.0 16 1.0 17 1.0 26 1.0
 8
 9 11 1.0 12 1.0 18 1.0
 10
 11 20 1.0 19 1.0
 12 22 1.0 21 1.0
 13 23 1.0 24 1.0 27 1.0
 14
 15
 16
 17
 18
 19
 20
 21
 22
 23
 24
 25
 26
 27


