%nprocshared=2
%mem=512MW
%chk=14L.chk
# opt b3lyp/6-311++g geom=connectivity

Title Card Required

0 1
 O(PDBName=O1)                       5.19600000   -1.74200000    0.23300000
 O(PDBName=O2)                       4.13100000   -1.44100000    2.18500000
 C(PDBName=C1)                      -3.33800000   -1.80000000    0.25500000
 C(PDBName=C2)                      -4.53700000   -2.40500000   -0.44400000
 C(PDBName=C3)                      -2.04400000   -2.40800000   -0.24300000
 C(PDBName=C4)                      -5.83100000   -1.84500000    0.10800000
 C(PDBName=C5)                      -0.84800000   -1.76100000    0.42100000
 C(PDBName=C6)                      -7.03200000   -2.40800000   -0.62000000
 C(PDBName=C7)                       0.44400000   -2.43000000    0.00500000
 C(PDBName=C8)                      -8.32300000   -1.87400000   -0.04000000
 C(PDBName=C9)                       1.63400000   -1.74600000    0.64300000
 C(PDBName=C10)                     -9.52600000   -2.39600000   -0.79600000
 C(PDBName=C11)                    -10.81700000   -1.86500000   -0.20900000
 C(PDBName=C12)                      2.92400000   -2.45800000    0.29500000
 C(PDBName=C13)                    -12.01700000   -2.35200000   -0.98000000
 C(PDBName=C14)                      4.07800000   -1.83300000    1.01900000
 C(PDBName=C15)                      6.34600000   -1.06800000    0.75000000
 H(PDBName=H1)                      -3.32400000   -0.68900000    0.08600000
 H(PDBName=H2)                      -3.42700000   -1.96300000    1.36200000
 H(PDBName=H3)                      -4.47600000   -2.19700000   -1.54400000
 H(PDBName=H4)                      -4.52600000   -3.52000000   -0.31600000
 H(PDBName=H5)                      -2.04200000   -3.51000000   -0.03300000
 H(PDBName=H6)                      -1.97100000   -2.28300000   -1.35600000
 H(PDBName=H7)                      -5.90700000   -2.08600000    1.20200000
 H(PDBName=H8)                      -5.82600000   -0.72400000    0.01800000
 H(PDBName=H9)                      -0.81300000   -0.66900000    0.15300000
 H(PDBName=H10)                     -0.95800000   -1.82200000    1.53600000
 H(PDBName=H11)                     -6.96900000   -2.14300000   -1.70900000
 H(PDBName=H12)                     -7.02300000   -3.52800000   -0.55200000
 H(PDBName=H13)                      0.42200000   -3.51100000    0.30700000
 H(PDBName=H14)                      0.54400000   -2.40100000   -1.11200000
 H(PDBName=H15)                     -8.40100000   -2.17000000    1.04000000
 H(PDBName=H16)                     -8.31600000   -0.75000000   -0.07400000
 H(PDBName=H17)                      1.68600000   -0.67800000    0.29600000
 H(PDBName=H18)                      1.51100000   -1.72500000    1.75900000
 H(PDBName=H19)                     -9.45200000   -2.09500000   -1.87400000
 H(PDBName=H20)                     -9.53300000   -3.51800000   -0.76600000
 H(PDBName=H21)                    -10.90000000   -2.18900000    0.86200000
 H(PDBName=H22)                    -10.79400000   -0.74200000   -0.21300000
 H(PDBName=H23)                      2.87400000   -3.53500000    0.60700000
 H(PDBName=H24)                      3.10700000   -2.42800000   -0.81100000
 H(PDBName=H25)                    -12.95600000   -1.95200000   -0.52700000
 H(PDBName=H26)                    -12.06600000   -3.46700000   -0.96900000
 H(PDBName=H27)                    -11.96600000   -2.01400000   -2.04300000
 H(PDBName=H28)                      6.20700000   -0.76800000    1.82000000
 H(PDBName=H29)                      7.19700000   -1.79400000    0.64200000
 H(PDBName=H30)                      6.54700000   -0.18200000    0.14800000

 1 17 1.0 16 1.0
 2 16 2.0
 3 4 1.0 5 1.0 18 1.0 19 1.0
 4 6 1.0 20 1.0 21 1.0
 5 7 1.0 22 1.0 23 1.0
 6 8 1.0 25 1.0 24 1.0
 7 9 1.0 26 1.0 27 1.0
 8 10 1.0 28 1.0 29 1.0
 9 11 1.0 30 1.0 31 1.0
 10 12 1.0 33 1.0 32 1.0
 11 34 1.0 35 1.0 14 1.0
 12 13 1.0 36 1.0 37 1.0
 13 15 1.0 38 1.0 39 1.0
 14 40 1.0 41 1.0 16 1.0
 15 42 1.0 43 1.0 44 1.0
 16
 17 46 1.0 45 1.0 47 1.0
 18
 19
 20
 21
 22
 23
 24
 25
 26
 27
 28
 29
 30
 31
 32
 33
 34
 35
 36
 37
 38
 39
 40
 41
 42
 43
 44
 45
 46
 47


