%nprocshared=2
%mem=512MB
%chk=14L_MP2.chk
# HF/6-311++g SCF=Tight Pop=MK IOp(6/33=2,6/41=10,6/42=17) iop(6/50=1) geom=connectivity

mp2 14L

0 1
 O                 -7.84568889   -0.68650147    0.00025680
 O                 -6.87818635    1.38863267   -0.00018686
 C                  0.92315110    0.37906888    0.00011230
 C                  2.22705685   -0.43711119    0.00000468
 C                 -0.34563216   -0.49062613    0.00008323
 C                  3.49665894    0.43143607    0.00018721
 C                 -1.64964170    0.32513512   -0.00004777
 C                  4.80012343   -0.38550639   -0.00004893
 C                 -2.91704414   -0.54622988   -0.00028729
 C                  6.07038109    0.48212071    0.00010728
 C                 -4.21706543    0.27510024   -0.00031007
 C                  7.37344371   -0.33500500    0.00000983
 C                  8.64469055    0.53153341   -0.00001496
 C                 -5.46719443   -0.61259947   -0.00030900
 C                  9.94052355   -0.29348008    0.00000499
 C                 -6.75874914    0.16092448   -0.00008380
 C                 -9.18091205   -0.06868107    0.00046241
 H                  0.90948179    1.03743002    0.87706166
 H                  0.90942392    1.03757684   -0.87672563
 H                  2.24045890   -1.09577798    0.87685297
 H                  2.24050249   -1.09547440   -0.87706985
 H                 -0.33146849   -1.14909685   -0.87689669
 H                 -0.33157712   -1.14898276    0.87715094
 H                  3.48346041    1.09014985   -0.87657360
 H                  3.48350643    1.08970772    0.87728016
 H                 -1.66451876    0.98329543    0.87671314
 H                 -1.66427004    0.98340915   -0.87672903
 H                  4.81310713   -1.04424935    0.87673278
 H                  4.81304771   -1.04384191   -0.87713682
 H                 -2.90093106   -1.20455590   -0.87750179
 H                 -2.90109792   -1.20483394    0.87672081
 H                  6.05757489    1.14078688   -0.87674989
 H                  6.05753954    1.14052721    0.87715882
 H                 -4.23916343    0.93328272    0.87257516
 H                 -4.23914265    0.93321085   -0.87325385
 H                  7.38731212   -0.99377540    0.87693612
 H                  7.38723645   -0.99369744   -0.87697540
 H                  8.63074340    1.18961082   -0.87620061
 H                  8.63074774    1.18964615    0.87614435
 H                 -5.47459603   -1.27502736   -0.87160034
 H                 -5.47441818   -1.27531670    0.87075535
 H                 10.82345479    0.34996235   -0.00041971
 H                  9.99751727   -0.93697383   -0.88219423
 H                  9.99790775   -0.93634259    0.88263781
 H                 -9.30954250    0.54514063   -0.88876599
 H                 -9.87096432   -0.90490218    0.00084296
 H                 -9.30907153    0.54558416    0.88945039

 1 16 1.0 17 1.0
 2 16 2.0
 3 4 1.0 5 1.0 18 1.0 19 1.0
 4 6 1.0 20 1.0 21 1.0
 5 7 1.0 22 1.0 23 1.0
 6 8 1.0 24 1.0 25 1.0
 7 9 1.0 26 1.0 27 1.0
 8 10 1.0 28 1.0 29 1.0
 9 11 1.0 30 1.0 31 1.0
 10 12 1.0 32 1.0 33 1.0
 11 14 1.0 34 1.0 35 1.0
 12 13 1.0 36 1.0 37 1.0
 13 15 1.0 38 1.0 39 1.0
 14 16 1.0 40 1.0 41 1.0
 15 42 1.0 43 1.0 44 1.0
 16
 17 45 1.0 46 1.0 47 1.0
 18
 19
 20
 21
 22
 23
 24
 25
 26
 27
 28
 29
 30
 31
 32
 33
 34
 35
 36
 37
 38
 39
 40
 41
 42
 43
 44
 45
 46
 47

 14L.gesp 
