%nprocshared=2
%mem=512MB
%chk=eg_MP2.chk
# HF/6-311G* SCF=Tight Pop=MK IOp(6/33=2,6/41=10,6/42=17) iop(6/50=1) geom=connectivity

Title Card Required

0 1
 O                 -1.74719695    0.51937546    0.00001370
 C                 -3.05005021   -0.11823605   -0.00005188
 C                 -0.63346941   -0.41557128    0.00004330
 C                  0.63346743    0.41556424    0.00005252
 O                  1.74719978   -0.51937863    0.00002270
 C                  3.05004829    0.11824494   -0.00005899
 H                 -3.78161581    0.68500290   -0.00006653
 H                 -3.18585661   -0.73734069    0.89313369
 H                 -3.18578437   -0.73730717   -0.89327148
 H                 -0.66899413   -1.05284318   -0.88978191
 H                 -0.66902168   -1.05281975    0.88988262
 H                  0.66901809    1.05280571    0.88989717
 H                  0.66899955    1.05283115   -0.88977161
 H                  3.78162165   -0.68498647   -0.00007586
 H                  3.18586736    0.73735008    0.89312811
 H                  3.18576674    0.73732162   -0.89327515

 1 2 1.0 3 1.0
 2 7 1.0 8 1.0 9 1.0
 3 4 1.0 10 1.0 11 1.0
 4 5 1.0 12 1.0 13 1.0
 5 6 1.0
 6 14 1.0 15 1.0 16 1.0
 7
 8
 9
 10
 11
 12
 13
 14
 15
 16
 
 eg.gesp 

