%nprocshared=2
%mem=512MB
%chk=eg.chk
# opt b3lyp/6-311++g geom=connectivity

Title Card Required

0 1
 O(PDBName=O1)                   -1.64200000   -0.58100000   -0.32100000
 C(PDBName=C1)                   -2.28500000   -1.93600000   -0.32100000
 C(PDBName=C2)                   -0.11000000   -0.73900000   -0.32100000
 C(PDBName=C3)                    0.55000000    0.65200000   -0.32100000
 O(PDBName=O2)                    2.08200000    0.49500000   -0.32100000
 C(PDBName=C4)                    2.72500000    1.85000000   -0.32100000
 H(PDBName=H1)                   -3.36900000   -1.82500000   -0.32100000
 H(PDBName=H2)                   -1.97700000   -2.48500000    0.56900000
 H(PDBName=H3)                   -1.97700000   -2.48500000   -1.21100000
 H(PDBName=H4)                    0.19800000   -1.28700000   -1.21100000
 H(PDBName=H5)                    0.19800000   -1.28700000    0.56900000
 H(PDBName=H6)                    0.24200000    1.20000000    0.56900000
 H(PDBName=H7)                    0.24100000    1.20100000   -1.21100000
 H(PDBName=H8)                    3.80900000    1.73800000   -0.32200000
 H(PDBName=H9)                    2.41700000    2.39800000    0.56900000
 H(PDBName=H10)                   2.41700000    2.39900000   -1.21100000

 1 3 1.0 2 1.0
 2 7 1.0 8 1.0 9 1.0
 3 4 1.0 10 1.0 11 1.0
 4 5 1.0 12 1.0 13 1.0
 5 6 1.0
 6 14 1.0 15 1.0 16 1.0
 7
 8
 9
 10
 11
 12
 13
 14
 15
 16


