%nprocshared=2
%mem=512MB
%chk=13C.chk
# opt b3lyp/6-311++g geom=connectivity

opt 13c

0 1
 O(PDBName=O1)                       5.61000000    1.11500000    0.19300000
 O(PDBName=O2)                       5.94900000    2.10100000   -1.78900000
 C(PDBName=C1)                      -2.12600000    1.91600000    0.17400000
 C(PDBName=C2)                      -3.38800000    2.74400000    0.28700000
 C(PDBName=C3)                      -0.89100000    2.79200000    0.17000000
 C(PDBName=C4)                      -4.62300000    1.87000000    0.23200000
 C(PDBName=C5)                       0.36400000    1.96100000    0.01100000
 C(PDBName=C6)                      -5.88800000    2.69500000    0.32800000
 C(PDBName=C7)                       1.60000000    2.83300000   -0.05200000
 C(PDBName=C8)                      -7.11900000    1.82100000    0.22900000
 C(PDBName=C9)                       2.83200000    1.99500000   -0.32000000
 C(PDBName=C10)                     -8.38800000    2.64200000    0.32300000
 C(PDBName=C11)                      4.07700000    2.85700000   -0.38300000
 C(PDBName=C12)                     -9.61700000    1.76700000    0.19500000
 C(PDBName=C13)                      5.27000000    2.03500000   -0.76400000
 C(PDBName=C14)                      6.62500000    0.15100000   -0.13100000
 C(PDBName=C15)                    -10.88600000    2.57200000    0.29500000
 C(PDBName=C16)                      6.34600000   -1.06800000    0.75000000
 C(PDBName=C17)                      7.99300000    0.75600000    0.19500000
 H(PDBName=H1)                      -2.07200000    1.19100000    1.03000000
 H(PDBName=H2)                      -2.15900000    1.30800000   -0.76800000
 H(PDBName=H3)                      -3.37600000    3.32000000    1.25000000
 H(PDBName=H4)                      -3.42200000    3.49500000   -0.54600000
 H(PDBName=H5)                      -0.96000000    3.53400000   -0.66900000
 H(PDBName=H6)                      -0.83900000    3.37600000    1.12600000
 H(PDBName=H7)                      -4.62700000    1.28500000   -0.72600000
 H(PDBName=H8)                      -4.59400000    1.12400000    1.07000000
 H(PDBName=H9)                       0.45300000    1.24300000    0.87000000
 H(PDBName=H10)                      0.29000000    1.34500000   -0.92500000
 H(PDBName=H11)                     -5.90000000    3.25500000    1.30100000
 H(PDBName=H12)                     -5.90200000    3.46000000   -0.49300000
 H(PDBName=H13)                      1.48100000    3.59900000   -0.86300000
 H(PDBName=H14)                      1.72100000    3.38800000    0.91500000
 H(PDBName=H15)                     -7.10500000    1.26100000   -0.74400000
 H(PDBName=H16)                     -7.10500000    1.05500000    1.04900000
 H(PDBName=H17)                      2.95600000    1.22600000    0.48900000
 H(PDBName=H18)                      2.70700000    1.44400000   -1.29000000
 H(PDBName=H19)                     -8.41300000    3.18500000    1.30500000
 H(PDBName=H20)                     -8.39500000    3.42000000   -0.48500000
 H(PDBName=H21)                      3.95700000    3.67000000   -1.14700000
 H(PDBName=H22)                      4.26700000    3.33100000    0.61600000
 H(PDBName=H23)                     -9.58900000    1.22700000   -0.79000000
 H(PDBName=H24)                     -9.60300000    0.98300000    0.99800000
 H(PDBName=H25)                      6.56800000   -0.12100000   -1.22000000
 H(PDBName=H26)                    -11.77600000    1.90500000    0.19500000
 H(PDBName=H27)                    -10.92900000    3.34300000   -0.51300000
 H(PDBName=H28)                    -10.94500000    3.09500000    1.28000000
 H(PDBName=H29)                      6.20700000   -0.76800000    1.82000000
 H(PDBName=H30)                      8.07300000    1.00100000    1.28700000
 H(PDBName=H31)                      8.14200000    1.68700000   -0.41400000
 H(PDBName=H32)                      5.44000000   -1.56200000    0.39800000
 H(PDBName=H33)                      7.18700000   -1.75800000    0.68000000
 H(PDBName=H34)                      8.76900000    0.03600000   -0.06400000

 1 16 1.0 15 1.0
 2 15 2.0
 3 4 1.0 20 1.0 5 1.0 21 1.0
 4 6 1.0 23 1.0 22 1.0
 5 7 1.0 24 1.0 25 1.0
 6 27 1.0 8 1.0 26 1.0
 7 9 1.0 28 1.0 29 1.0
 8 10 1.0 31 1.0 30 1.0
 9 11 1.0 32 1.0 33 1.0
 10 35 1.0 12 1.0 34 1.0
 11 36 1.0 37 1.0 13 1.0
 12 14 1.0 39 1.0 38 1.0
 13 15 1.0 40 1.0 41 1.0
 14 42 1.0 43 1.0 17 1.0
 15
 16 18 1.0 19 1.0 44 1.0
 17 45 1.0 46 1.0 47 1.0
 18 51 1.0 52 1.0 48 1.0
 19 53 1.0 49 1.0 50 1.0
 20
 21
 22
 23
 24
 25
 26
 27
 28
 29
 30
 31
 32
 33
 34
 35
 36
 37
 38
 39
 40
 41
 42
 43
 44
 45
 46
 47
 48
 49
 50
 51
 52
 53


