%nprocshared=2
%mem=512MB
%chk=13C_HF.chk
# HF/6-311++g SCF=Tight Pop=MK IOp(6/33=2,6/41=10,6/42=17) iop(6/50=1) geom=connectivity

dft13c

0 1
 O                  6.17434198    0.40673765   -0.28614577
 O                  6.61107498   -1.45351697    0.98780756
 C                 -1.75865342   -0.00865293    0.25894137
 C                 -3.11273912   -0.54533352   -0.23562627
 C                 -0.55305620   -0.81423199   -0.25459501
 C                 -4.31724680    0.26823740    0.26787107
 C                  0.79980173   -0.27768502    0.24346617
 C                 -5.67177144   -0.26811994   -0.22592392
 C                  2.00609255   -1.07519562   -0.28081447
 C                 -6.87564233    0.55109856    0.26995736
 C                  3.35311786   -0.53702313    0.22862980
 C                 -8.23025629    0.01495245   -0.22305589
 C                  4.55463877   -1.34177103   -0.31827818
 C                 -9.43448522    0.83672443    0.26822184
 C                  5.87568471   -0.84367794    0.20296495
 C                  7.44079347    1.07182969    0.15788192
 C                -10.78279720    0.29299526   -0.22794748
 C                  7.14827318    2.56378791    0.12301888
 C                  8.57204600    0.63475320   -0.76555176
 H                 -1.65073253    1.03797266   -0.05054805
 H                 -1.75046407   -0.00574568    1.35557872
 H                 -3.11775527   -0.55564832   -1.33230589
 H                 -3.22472305   -1.58948687    0.08058527
 H                 -0.66137490   -1.86153356    0.05207790
 H                 -0.55992655   -0.81395134   -1.35126531
 H                 -4.31202232    0.28020906    1.36450507
 H                 -4.20507793    1.31196794   -0.04985931
 H                  0.90438773    0.77211548   -0.05552168
 H                  0.80979797   -0.28659721    1.33989704
 H                 -5.67457074   -0.28548083   -1.32251533
 H                 -5.78685305   -1.31000180    0.09666148
 H                  1.89949624   -2.12640005    0.01173786
 H                  2.00141979   -1.05845031   -1.37725585
 H                 -6.87262972    0.56959947    1.36655311
 H                 -6.76054638    1.59270610   -0.05372204
 H                  3.46648173    0.51083901   -0.06003138
 H                  3.36759181   -0.56862074    1.32306533
 H                 -8.23311199   -0.00669081   -1.31970214
 H                 -8.34815428   -1.02562653    0.10327431
 H                  4.46882938   -2.39075282   -0.03524579
 H                  4.56270069   -1.28013825   -1.40951274
 H                 -9.43111668    0.85906777    1.36388659
 H                 -9.31739459    1.87614899   -0.05864387
 H                  7.63124743    0.72941073    1.17535000
 H                -11.61588407    0.89816403    0.13717607
 H                -10.94300720   -0.73344119    0.11322842
 H                -10.82819003    0.28933028   -1.32042821
 H                  6.90379943    2.88621775   -0.89034299
 H                  8.35084589    0.90946561   -1.79850882
 H                  8.72397242   -0.44285350   -0.71127781
 H                  6.30973378    2.80952895    0.77462868
 H                  8.02254538    3.12411318    0.46205304
 H                  9.50454828    1.12267061   -0.47182835

 1 15 1.0 16 1.0
 2 15 2.0
 3 4 1.0 5 1.0 20 1.0 21 1.0
 4 6 1.0 22 1.0 23 1.0
 5 7 1.0 24 1.0 25 1.0
 6 8 1.0 26 1.0 27 1.0
 7 9 1.0 28 1.0 29 1.0
 8 10 1.0 30 1.0 31 1.0
 9 11 1.0 32 1.0 33 1.0
 10 12 1.0 34 1.0 35 1.0
 11 13 1.0 36 1.0 37 1.0
 12 14 1.0 38 1.0 39 1.0
 13 15 1.0 40 1.0 41 1.0
 14 17 1.0 42 1.0 43 1.0
 15
 16 18 1.0 19 1.0 44 1.0
 17 45 1.0 46 1.0 47 1.0
 18 48 1.0 51 1.0 52 1.0
 19 49 1.0 50 1.0 53 1.0
 20
 21
 22
 23
 24
 25
 26
 27
 28
 29
 30
 31
 32
 33
 34
 35
 36
 37
 38
 39
 40
 41
 42
 43
 44
 45
 46
 47
 48
 49
 50
 51
 52
 53

 13C.gesp 
